21
aspirin - PubChem CID: 2244
O      1.233300     0.554000     0.779200
O     -0.695200    -2.714800    -0.750200
O      0.795800    -2.184300     0.868500
O      1.781300     0.810500    -1.482100
C     -0.085700     0.608800     0.440300
C     -0.792700    -0.551500     0.124400
C     -0.728800     1.846400     0.413300
C     -2.142600    -0.474100    -0.218400
C     -2.078700     1.923800     0.070600
C     -2.785500     0.763600    -0.245300
C     -0.140900    -1.853600     0.147700
C      2.109400     0.671500    -0.311300
C      3.530500     0.599600     0.163500
H     -0.185100     2.754500     0.659300
H     -2.724700    -1.360500    -0.456400
H     -2.579700     2.887200     0.050600
H     -3.837400     0.823800    -0.509000
H      3.729000     1.418400     0.859300
H      4.204500     0.696900    -0.692400
H      3.710500    -0.365900     0.642600
H     -0.255500    -3.591600    -0.733700