8
ethane - PubChem CID: 6324
C     -0.756000     0.000000     0.000000
C      0.756000     0.000000     0.000000
H     -1.140400     0.658600     0.784500
H     -1.140400     0.350100    -0.962600
H     -1.140500    -1.008700     0.178100
H      1.140400    -0.350100     0.962600
H      1.140500     1.008700    -0.178100
H      1.140400    -0.658600    -0.784500