8
acetic acid - PubChem CID: 176
O     -0.303500     1.289000    -0.000200
O     -0.980000    -0.887800    -0.000200
C      1.374300    -0.351600    -0.000200
C     -0.090700    -0.049600     0.000600
H      1.836800     0.057000    -0.902100
H      1.840000     0.067600     0.895200
H      1.520700    -1.435600     0.006400
H     -1.259800     1.508100    -0.000800